CRYSTAL
PRIMVEC
     4.0865573173    0.0000000000    0.0000000000
     0.0000000000    3.9618904129    0.0000000000
     0.0000000000    0.0000000000    3.9618904129
PRIMCOORD
 5 1
 Ba      0.1088816744     0.0000000000     0.0000000000     -0.0002721600     0.0000000000     0.0000000000
 Ti      2.1876561900     1.9809449343     1.9809449343      0.0003151300     0.0000000000     0.0000000000
  O     -0.0692543638     1.9809449343     1.9809449343     -0.0007361900     0.0000000000     0.0000000000
  O      2.0125753363     0.0000000000     1.9809449343      0.0003466100     0.0000000000     0.0000000000
  O      2.0125753363     1.9809449343     0.0000000000      0.0003466100     0.0000000000     0.0000000000
